/*--------------------------------*- C++ -*----------------------------------*\
  =========                 |
  \\      /  F ield         | OpenFOAM: The Open Source CFD Toolbox
   \\    /   O peration     | Website:  https://openfoam.org
    \\  /    A nd           | Version:  dev
     \\/     M anipulation  |
\*---------------------------------------------------------------------------*/
FoamFile
{
    version     2.0;
    format      ascii;
    class       volScalarField;
    location    "0";
    object      C;
}
// * * * * * * * * * * * * * * * * * * * * * * * * * * * * * * * * * * * * * //

dimensions      [0 0 0 0 0 0 0];

internalField   uniform 1e-07;

boundaryField
{
    frontAndBack
    {
        type            empty;
    }
    left
    {
        type            fixedValue;
        value           uniform 0.14;
    }
    right
    {
        type            zeroGradient;
    }
    bottom
    {
        type            cyclic;
    }
    top
    {
        type            cyclic;
    }
    fixedWalls
    {
        type            zeroGradient;
    }
}


// ************************************************************************* //
